MatpowerDataProcesssed/d_case1.m
% 01/10/12 File data originated from Matpower data file
% 

Bus.con = [ ...
      1        1     1        0    1    1;
   ];

SW.con = [ ...
      1      100        1     1        0      0.1        0     1.06     0.94    2.324 1 1  1;
   ];

PQ.con = [ ...
   1 100        1    0.217    0.127     1.06     0.94 0 1;
   ];



Line.con = [ ...
   ];

Supply.con = [ ...
   1       100        0    3.324        0        0        0       20 0.043029        0        0        0  1 0 1;
   ];

Bus.names = {...
      'Bus 1'};

